<?xml version="1.0" encoding="UTF-8" standalone="yes"?>
<template encoding-version="1.3">
    <description>Shows example ingest of sample mission data, data tagging, ZTDF/NanoTDF and persistence to indexed database table</description>
    <groupId>771dce7d-0192-1000-bc00-3eb25e71ffbb</groupId>
    <name>Example Mission Data NiFi Flow With ZTDF/NanoTDF</name>
    <snippet>
        <processGroups>
            <id>ac53b567-ddec-397f-0000-000000000000</id>
            <parentGroupId>21991e0a-e7c9-32ad-0000-000000000000</parentGroupId>
            <position>
                <x>0.0</x>
                <y>0.0</y>
            </position>
            <comments></comments>
            <contents>
                <connections>
                    <id>b0b83d03-b227-3443-0000-000000000000</id>
                    <parentGroupId>ac53b567-ddec-397f-0000-000000000000</parentGroupId>
                    <versionedComponentId>781afd92-606d-3be7-9b09-901bbeff78cc</versionedComponentId>
                    <backPressureDataSizeThreshold>1 GB</backPressureDataSizeThreshold>
                    <backPressureObjectThreshold>10000</backPressureObjectThreshold>
                    <destination>
                        <groupId>a6a0da21-4eec-32b9-0000-000000000000</groupId>
                        <id>0bbdf5ac-5a16-3bdc-0000-000000000000</id>
                        <type>INPUT_PORT</type>
                        <versionedComponentId>bb38a97e-03f7-3c04-9946-9919c0a2e473</versionedComponentId>
                    </destination>
                    <flowFileExpiration>0 sec</flowFileExpiration>
                    <labelIndex>1</labelIndex>
                    <loadBalanceCompression>DO_NOT_COMPRESS</loadBalanceCompression>
                    <loadBalancePartitionAttribute></loadBalancePartitionAttribute>
                    <loadBalanceStatus>LOAD_BALANCE_NOT_CONFIGURED</loadBalanceStatus>
                    <loadBalanceStrategy>DO_NOT_LOAD_BALANCE</loadBalanceStrategy>
                    <name></name>
                    <source>
                        <groupId>983c683a-6dec-3241-0000-000000000000</groupId>
                        <id>316027a3-0fc2-347a-0000-000000000000</id>
                        <type>OUTPUT_PORT</type>
                        <versionedComponentId>2c9bfdf9-9938-368e-ad8d-22529b66854a</versionedComponentId>
                    </source>
                    <zIndex>0</zIndex>
                </connections>
                <connections>
                    <id>db254491-1e5a-39be-0000-000000000000</id>
                    <parentGroupId>ac53b567-ddec-397f-0000-000000000000</parentGroupId>
                    <versionedComponentId>a4f74e6e-f907-3882-913a-5d775c2fc9a9</versionedComponentId>
                    <backPressureDataSizeThreshold>1 GB</backPressureDataSizeThreshold>
                    <backPressureObjectThreshold>10000</backPressureObjectThreshold>
                    <destination>
                        <groupId>a6a0da21-4eec-32b9-0000-000000000000</groupId>
                        <id>0bbdf5ac-5a16-3bdc-0000-000000000000</id>
                        <type>INPUT_PORT</type>
                        <versionedComponentId>bb38a97e-03f7-3c04-9946-9919c0a2e473</versionedComponentId>
                    </destination>
                    <flowFileExpiration>0 sec</flowFileExpiration>
                    <labelIndex>1</labelIndex>
                    <loadBalanceCompression>DO_NOT_COMPRESS</loadBalanceCompression>
                    <loadBalancePartitionAttribute></loadBalancePartitionAttribute>
                    <loadBalanceStatus>LOAD_BALANCE_NOT_CONFIGURED</loadBalanceStatus>
                    <loadBalanceStrategy>DO_NOT_LOAD_BALANCE</loadBalanceStrategy>
                    <name></name>
                    <source>
                        <groupId>a7c4f645-6dad-3ef2-0000-000000000000</groupId>
                        <id>5ae365ae-ebb3-35f2-0000-000000000000</id>
                        <type>OUTPUT_PORT</type>
                        <versionedComponentId>193fdd2f-5675-3d09-ba9d-d6b3ace38ed9</versionedComponentId>
                    </source>
                    <zIndex>0</zIndex>
                </connections>
                <connections>
                    <id>ddcf0269-d5eb-3634-0000-000000000000</id>
                    <parentGroupId>ac53b567-ddec-397f-0000-000000000000</parentGroupId>
                    <backPressureDataSizeThreshold>1 GB</backPressureDataSizeThreshold>
                    <backPressureObjectThreshold>10000</backPressureObjectThreshold>
                    <destination>
                        <groupId>a7c4f645-6dad-3ef2-0000-000000000000</groupId>
                        <id>1b54a7ab-2426-34c3-0000-000000000000</id>
                        <type>INPUT_PORT</type>
                    </destination>
                    <flowFileExpiration>0 sec</flowFileExpiration>
                    <labelIndex>1</labelIndex>
                    <loadBalanceCompression>DO_NOT_COMPRESS</loadBalanceCompression>
                    <loadBalancePartitionAttribute></loadBalancePartitionAttribute>
                    <loadBalanceStatus>LOAD_BALANCE_NOT_CONFIGURED</loadBalanceStatus>
                    <loadBalanceStrategy>DO_NOT_LOAD_BALANCE</loadBalanceStrategy>
                    <name></name>
                    <source>
                        <groupId>c5dbcf33-1724-3d79-0000-000000000000</groupId>
                        <id>e1dee57d-558a-32fc-0000-000000000000</id>
                        <type>OUTPUT_PORT</type>
                        <versionedComponentId>bb480197-fd42-34be-b3e8-6adbd589d43e</versionedComponentId>
                    </source>
                    <zIndex>0</zIndex>
                </connections>
                <connections>
                    <id>e8b5eaa0-a483-3467-0000-000000000000</id>
                    <parentGroupId>ac53b567-ddec-397f-0000-000000000000</parentGroupId>
                    <versionedComponentId>38a73dcf-74e1-3478-97bb-9ab9fb398e70</versionedComponentId>
                    <backPressureDataSizeThreshold>1 GB</backPressureDataSizeThreshold>
                    <backPressureObjectThreshold>10000</backPressureObjectThreshold>
                    <bends>
                        <x>248.0</x>
                        <y>296.0</y>
                    </bends>
                    <destination>
                        <groupId>983c683a-6dec-3241-0000-000000000000</groupId>
                        <id>b1df1517-744f-38b3-0000-000000000000</id>
                        <type>INPUT_PORT</type>
                        <versionedComponentId>611f332e-3ba7-31a8-ab62-0a8c8ce39345</versionedComponentId>
                    </destination>
                    <flowFileExpiration>0 sec</flowFileExpiration>
                    <labelIndex>1</labelIndex>
                    <loadBalanceCompression>DO_NOT_COMPRESS</loadBalanceCompression>
                    <loadBalancePartitionAttribute></loadBalancePartitionAttribute>
                    <loadBalanceStatus>LOAD_BALANCE_NOT_CONFIGURED</loadBalanceStatus>
                    <loadBalanceStrategy>DO_NOT_LOAD_BALANCE</loadBalanceStrategy>
                    <name></name>
                    <source>
                        <groupId>c5dbcf33-1724-3d79-0000-000000000000</groupId>
                        <id>e1dee57d-558a-32fc-0000-000000000000</id>
                        <type>OUTPUT_PORT</type>
                        <versionedComponentId>bb480197-fd42-34be-b3e8-6adbd589d43e</versionedComponentId>
                    </source>
                    <zIndex>0</zIndex>
                </connections>
                <controllerServices>
                    <id>aea0ef59-18e5-3b84-0000-000000000000</id>
                    <parentGroupId>ac53b567-ddec-397f-0000-000000000000</parentGroupId>
                    <versionedComponentId>0cc4234c-1000-3c87-8ff5-d494affd658e</versionedComponentId>
                    <bulletinLevel>WARN</bulletinLevel>
                    <bundle>
                        <artifact>nifi-tdf-nar</artifact>
                        <group>io.opentdf.nifi</group>
                        <version>0.4.0</version>
                    </bundle>
                    <comments></comments>
                    <descriptors>
                        <entry>
                            <key>clientId</key>
                            <value>
<name>clientId</name>
                            </value>
                        </entry>
                        <entry>
                            <key>usePlaintext</key>
                            <value>
<name>usePlaintext</name>
                            </value>
                        </entry>
                        <entry>
                            <key>clientSecret</key>
                            <value>
<name>clientSecret</name>
                            </value>
                        </entry>
                        <entry>
                            <key>platform-endpoint</key>
                            <value>
<name>platform-endpoint</name>
                            </value>
                        </entry>
                    </descriptors>
                    <name>Example DSP ControllerService</name>
                    <persistsState>false</persistsState>
                    <properties>
                        <entry>
                            <key>clientId</key>
                            <value>${TDF_FLOW_CLIENT_ID}</value>
                        </entry>
                        <entry>
                            <key>usePlaintext</key>
                            <value>false</value>
                        </entry>
                        <entry>
                            <key>clientSecret</key>
                        </entry>
                        <entry>
                            <key>platform-endpoint</key>
                            <value>${TDF_FLOW_PLATFORM_ENDPOINT}</value>
                        </entry>
                    </properties>
                    <state>DISABLED</state>
                    <type>io.opentdf.nifi.SimpleOpenTDFControllerService</type>
                </controllerServices>
                <controllerServices>
                    <id>c05f0558-2fa2-30fe-0000-000000000000</id>
                    <parentGroupId>ac53b567-ddec-397f-0000-000000000000</parentGroupId>
                    <versionedComponentId>cb1933da-9c5f-373a-b864-871b5252b3a1</versionedComponentId>
                    <bulletinLevel>WARN</bulletinLevel>
                    <bundle>
                        <artifact>nifi-record-serialization-services-nar</artifact>
                        <group>org.apache.nifi</group>
                        <version>1.25.0</version>
                    </bundle>
                    <comments></comments>
                    <descriptors>
                        <entry>
                            <key>schema-branch</key>
                            <value>
<dependencies>
    <dependentValues>schema-name</dependentValues>
    <propertyName>schema-access-strategy</propertyName>
</dependencies>
<name>schema-branch</name>
                            </value>
                        </entry>
                        <entry>
                            <key>compression-level</key>
                            <value>
<dependencies>
    <dependentValues>gzip</dependentValues>
    <propertyName>compression-format</propertyName>
</dependencies>
<name>compression-level</name>
                            </value>
                        </entry>
                        <entry>
                            <key>schema-cache</key>
                            <value>
<identifiesControllerService>org.apache.nifi.serialization.RecordSchemaCacheService</identifiesControllerService>
<name>schema-cache</name>
                            </value>
                        </entry>
                        <entry>
                            <key>Timestamp Format</key>
                            <value>
<name>Timestamp Format</name>
                            </value>
                        </entry>
                        <entry>
                            <key>Date Format</key>
                            <value>
<name>Date Format</name>
                            </value>
                        </entry>
                        <entry>
                            <key>Pretty Print JSON</key>
                            <value>
<name>Pretty Print JSON</name>
                            </value>
                        </entry>
                        <entry>
                            <key>compression-format</key>
                            <value>
<name>compression-format</name>
                            </value>
                        </entry>
                        <entry>
                            <key>Schema Write Strategy</key>
                            <value>
<name>Schema Write Strategy</name>
                            </value>
                        </entry>
                        <entry>
                            <key>suppress-nulls</key>
                            <value>
<name>suppress-nulls</name>
                            </value>
                        </entry>
                        <entry>
                            <key>output-grouping</key>
                            <value>
<name>output-grouping</name>
                            </value>
                        </entry>
                        <entry>
                            <key>schema-name</key>
                            <value>
<dependencies>
    <dependentValues>schema-name</dependentValues>
    <propertyName>schema-access-strategy</propertyName>
</dependencies>
<name>schema-name</name>
                            </value>
                        </entry>
                        <entry>
                            <key>schema-registry</key>
                            <value>
<dependencies>
    <dependentValues>confluent-encoded</dependentValues>
    <dependentValues>schema-name</dependentValues>
    <dependentValues>hwx-schema-ref-attributes</dependentValues>
    <dependentValues>hwx-content-encoded-schema</dependentValues>
    <propertyName>schema-access-strategy</propertyName>
</dependencies>
<identifiesControllerService>org.apache.nifi.schemaregistry.services.SchemaRegistry</identifiesControllerService>
<name>schema-registry</name>
                            </value>
                        </entry>
                        <entry>
                            <key>Time Format</key>
                            <value>
<name>Time Format</name>
                            </value>
                        </entry>
                        <entry>
                            <key>schema-access-strategy</key>
                            <value>
<name>schema-access-strategy</name>
                            </value>
                        </entry>
                        <entry>
                            <key>schema-protocol-version</key>
                            <value>
<dependencies>
    <dependentValues>hwx-schema-ref-attributes</dependentValues>
    <dependentValues>hwx-content-encoded-schema</dependentValues>
    <propertyName>Schema Write Strategy</propertyName>
</dependencies>
<name>schema-protocol-version</name>
                            </value>
                        </entry>
                        <entry>
                            <key>schema-version</key>
                            <value>
<dependencies>
    <dependentValues>schema-name</dependentValues>
    <propertyName>schema-access-strategy</propertyName>
</dependencies>
<name>schema-version</name>
                            </value>
                        </entry>
                        <entry>
                            <key>schema-text</key>
                            <value>
<dependencies>
    <dependentValues>schema-text-property</dependentValues>
    <propertyName>schema-access-strategy</propertyName>
</dependencies>
<name>schema-text</name>
                            </value>
                        </entry>
                    </descriptors>
                    <name>Mission JsonRecordSetWriter</name>
                    <persistsState>false</persistsState>
                    <properties>
                        <entry>
                            <key>schema-branch</key>
                        </entry>
                        <entry>
                            <key>compression-level</key>
                            <value>1</value>
                        </entry>
                        <entry>
                            <key>schema-cache</key>
                        </entry>
                        <entry>
                            <key>Timestamp Format</key>
                        </entry>
                        <entry>
                            <key>Date Format</key>
                        </entry>
                        <entry>
                            <key>Pretty Print JSON</key>
                            <value>false</value>
                        </entry>
                        <entry>
                            <key>compression-format</key>
                            <value>none</value>
                        </entry>
                        <entry>
                            <key>Schema Write Strategy</key>
                            <value>no-schema</value>
                        </entry>
                        <entry>
                            <key>suppress-nulls</key>
                            <value>never-suppress</value>
                        </entry>
                        <entry>
                            <key>output-grouping</key>
                            <value>output-array</value>
                        </entry>
                        <entry>
                            <key>schema-name</key>
                            <value>${schema.name}</value>
                        </entry>
                        <entry>
                            <key>schema-registry</key>
                        </entry>
                        <entry>
                            <key>Time Format</key>
                        </entry>
                        <entry>
                            <key>schema-access-strategy</key>
                            <value>inherit-record-schema</value>
                        </entry>
                        <entry>
                            <key>schema-protocol-version</key>
                            <value>1</value>
                        </entry>
                        <entry>
                            <key>schema-version</key>
                        </entry>
                        <entry>
                            <key>schema-text</key>
                            <value>${avro.schema}</value>
                        </entry>
                    </properties>
                    <state>DISABLED</state>
                    <type>org.apache.nifi.json.JsonRecordSetWriter</type>
                </controllerServices>
                <controllerServices>
                    <id>cfcd831c-21b4-36f3-0000-000000000000</id>
                    <parentGroupId>ac53b567-ddec-397f-0000-000000000000</parentGroupId>
                    <versionedComponentId>996066dd-a33e-3345-b560-01872a9f0e6a</versionedComponentId>
                    <bulletinLevel>WARN</bulletinLevel>
                    <bundle>
                        <artifact>nifi-ssl-context-service-nar</artifact>
                        <group>org.apache.nifi</group>
                        <version>1.25.0</version>
                    </bundle>
                    <comments></comments>
                    <descriptors>
                        <entry>
                            <key>Truststore Type</key>
                            <value>
<name>Truststore Type</name>
                            </value>
                        </entry>
                        <entry>
                            <key>SSL Protocol</key>
                            <value>
<name>SSL Protocol</name>
                            </value>
                        </entry>
                        <entry>
                            <key>Keystore Type</key>
                            <value>
<name>Keystore Type</name>
                            </value>
                        </entry>
                        <entry>
                            <key>Truststore Filename</key>
                            <value>
<name>Truststore Filename</name>
                            </value>
                        </entry>
                        <entry>
                            <key>Keystore Password</key>
                            <value>
<name>Keystore Password</name>
                            </value>
                        </entry>
                        <entry>
                            <key>key-password</key>
                            <value>
<name>key-password</name>
                            </value>
                        </entry>
                        <entry>
                            <key>Truststore Password</key>
                            <value>
<name>Truststore Password</name>
                            </value>
                        </entry>
                        <entry>
                            <key>Keystore Filename</key>
                            <value>
<name>Keystore Filename</name>
                            </value>
                        </entry>
                    </descriptors>
                    <name>Example DSP SSLContextService</name>
                    <persistsState>false</persistsState>
                    <properties>
                        <entry>
                            <key>Truststore Type</key>
                            <value>JKS</value>
                        </entry>
                        <entry>
                            <key>SSL Protocol</key>
                            <value>TLS</value>
                        </entry>
                        <entry>
                            <key>Keystore Type</key>
                        </entry>
                        <entry>
                            <key>Truststore Filename</key>
                            <value>${TDF_TRUSTSTORE_FILENAME}</value>
                        </entry>
                        <entry>
                            <key>Keystore Password</key>
                        </entry>
                        <entry>
                            <key>key-password</key>
                        </entry>
                        <entry>
                            <key>Truststore Password</key>
                        </entry>
                        <entry>
                            <key>Keystore Filename</key>
                        </entry>
                    </properties>
                    <state>DISABLED</state>
                    <type>org.apache.nifi.ssl.StandardSSLContextService</type>
                </controllerServices>
                <labels>
                    <id>4b1307eb-cc12-31e2-0000-000000000000</id>
                    <parentGroupId>ac53b567-ddec-397f-0000-000000000000</parentGroupId>
                    <position>
                        <x>72.0</x>
                        <y>-40.0</y>
                    </position>
                    <versionedComponentId>9f5573d8-b68a-3e7f-9223-0102cbee8424</versionedComponentId>
                    <height>56.0</height>
                    <label>Example, loads data 
from mounted sample_data directory</label>
                    <style>
                        <entry>
                            <key>font-size</key>
                            <value>14px</value>
                        </entry>
                    </style>
                    <width>312.0</width>
                    <zIndex>0</zIndex>
                </labels>
                <labels>
                    <id>5ebfed8e-6d02-3a12-0000-000000000000</id>
                    <parentGroupId>ac53b567-ddec-397f-0000-000000000000</parentGroupId>
                    <position>
                        <x>624.0</x>
                        <y>280.0</y>
                    </position>
                    <height>56.0</height>
                    <label>Alternate flow, NanoTDF the content</label>
                    <style>
                        <entry>
                            <key>font-size</key>
                            <value>14px</value>
                        </entry>
                    </style>
                    <width>312.0</width>
                    <zIndex>0</zIndex>
                </labels>
                <processGroups>
                    <id>983c683a-6dec-3241-0000-000000000000</id>
                    <parentGroupId>ac53b567-ddec-397f-0000-000000000000</parentGroupId>
                    <position>
                        <x>56.0</x>
                        <y>416.0</y>
                    </position>
                    <versionedComponentId>2ec7d6a5-2470-3ef1-8f35-7296d8711288</versionedComponentId>
                    <comments></comments>
                    <contents>
                        <connections>
                            <id>633ca3cd-b96e-31b3-0000-000000000000</id>
                            <parentGroupId>983c683a-6dec-3241-0000-000000000000</parentGroupId>
                            <versionedComponentId>aee3bfca-b1fa-34df-a1a2-b6567b69cf12</versionedComponentId>
                            <backPressureDataSizeThreshold>1 GB</backPressureDataSizeThreshold>
                            <backPressureObjectThreshold>10000</backPressureObjectThreshold>
                            <destination>
<groupId>983c683a-6dec-3241-0000-000000000000</groupId>
<id>316027a3-0fc2-347a-0000-000000000000</id>
<type>OUTPUT_PORT</type>
<versionedComponentId>2c9bfdf9-9938-368e-ad8d-22529b66854a</versionedComponentId>
                            </destination>
                            <flowFileExpiration>0 sec</flowFileExpiration>
                            <labelIndex>1</labelIndex>
                            <loadBalanceCompression>DO_NOT_COMPRESS</loadBalanceCompression>
                            <loadBalancePartitionAttribute></loadBalancePartitionAttribute>
                            <loadBalanceStatus>LOAD_BALANCE_NOT_CONFIGURED</loadBalanceStatus>
                            <loadBalanceStrategy>DO_NOT_LOAD_BALANCE</loadBalanceStrategy>
                            <name></name>
                            <selectedRelationships>success</selectedRelationships>
                            <source>
<groupId>983c683a-6dec-3241-0000-000000000000</groupId>
<id>64c8105a-4015-3fea-0000-000000000000</id>
<type>PROCESSOR</type>
<versionedComponentId>c18ee80b-2a33-3532-a106-352779001447</versionedComponentId>
                            </source>
                            <zIndex>0</zIndex>
                        </connections>
                        <connections>
                            <id>7ae8aa13-2592-3576-0000-000000000000</id>
                            <parentGroupId>983c683a-6dec-3241-0000-000000000000</parentGroupId>
                            <versionedComponentId>6ddc7eac-697c-319e-9995-f836df63125d</versionedComponentId>
                            <backPressureDataSizeThreshold>1 GB</backPressureDataSizeThreshold>
                            <backPressureObjectThreshold>10000</backPressureObjectThreshold>
                            <destination>
<groupId>983c683a-6dec-3241-0000-000000000000</groupId>
<id>64c8105a-4015-3fea-0000-000000000000</id>
<type>PROCESSOR</type>
<versionedComponentId>c18ee80b-2a33-3532-a106-352779001447</versionedComponentId>
                            </destination>
                            <flowFileExpiration>0 sec</flowFileExpiration>
                            <labelIndex>1</labelIndex>
                            <loadBalanceCompression>DO_NOT_COMPRESS</loadBalanceCompression>
                            <loadBalancePartitionAttribute></loadBalancePartitionAttribute>
                            <loadBalanceStatus>LOAD_BALANCE_NOT_CONFIGURED</loadBalanceStatus>
                            <loadBalanceStrategy>DO_NOT_LOAD_BALANCE</loadBalanceStrategy>
                            <name></name>
                            <source>
<groupId>983c683a-6dec-3241-0000-000000000000</groupId>
<id>b1df1517-744f-38b3-0000-000000000000</id>
<type>INPUT_PORT</type>
<versionedComponentId>611f332e-3ba7-31a8-ab62-0a8c8ce39345</versionedComponentId>
                            </source>
                            <zIndex>0</zIndex>
                        </connections>
                        <connections>
                            <id>7d633491-f1b4-30e7-0000-000000000000</id>
                            <parentGroupId>983c683a-6dec-3241-0000-000000000000</parentGroupId>
                            <versionedComponentId>c0fa2edd-c0f8-3fab-bd0b-e7bde1eb4776</versionedComponentId>
                            <backPressureDataSizeThreshold>1 GB</backPressureDataSizeThreshold>
                            <backPressureObjectThreshold>10000</backPressureObjectThreshold>
                            <destination>
<groupId>983c683a-6dec-3241-0000-000000000000</groupId>
<id>efd87404-21da-3cc3-0000-000000000000</id>
<type>PROCESSOR</type>
<versionedComponentId>3c80d4bc-c223-3a38-ab60-babfdf52c6f7</versionedComponentId>
                            </destination>
                            <flowFileExpiration>0 sec</flowFileExpiration>
                            <labelIndex>1</labelIndex>
                            <loadBalanceCompression>DO_NOT_COMPRESS</loadBalanceCompression>
                            <loadBalancePartitionAttribute></loadBalancePartitionAttribute>
                            <loadBalanceStatus>LOAD_BALANCE_NOT_CONFIGURED</loadBalanceStatus>
                            <loadBalanceStrategy>DO_NOT_LOAD_BALANCE</loadBalanceStrategy>
                            <name></name>